# generated using pymatgen
data_Ba2TbNbO6
_symmetry_space_group_name_H-M   I4/m
_cell_length_a   6.04099400
_cell_length_b   6.04099400
_cell_length_c   8.61435600
_cell_angle_alpha   90.00000000
_cell_angle_beta   90.00000000
_cell_angle_gamma   90.00000000
_symmetry_Int_Tables_number   87
_chemical_formula_structural   Ba2TbNbO6
_chemical_formula_sum   'Ba4 Tb2 Nb2 O12'
_cell_volume   314.36893541
_cell_formula_units_Z   2
loop_
 _symmetry_equiv_pos_site_id
 _symmetry_equiv_pos_as_xyz
  1  'x, y, z'
  2  '-x, -y, -z'
  3  '-y, x, z'
  4  'y, -x, -z'
  5  '-x, -y, z'
  6  'x, y, -z'
  7  'y, -x, z'
  8  '-y, x, -z'
  9  'x+1/2, y+1/2, z+1/2'
  10  '-x+1/2, -y+1/2, -z+1/2'
  11  '-y+1/2, x+1/2, z+1/2'
  12  'y+1/2, -x+1/2, -z+1/2'
  13  '-x+1/2, -y+1/2, z+1/2'
  14  'x+1/2, y+1/2, -z+1/2'
  15  'y+1/2, -x+1/2, z+1/2'
  16  '-y+1/2, x+1/2, -z+1/2'
loop_
 _atom_site_type_symbol
 _atom_site_label
 _atom_site_symmetry_multiplicity
 _atom_site_fract_x
 _atom_site_fract_y
 _atom_site_fract_z
 _atom_site_occupancy
  Ba  Ba0  4  0.00000000  0.50000000  0.25000000  1
  Tb  Tb1  2  0.00000000  0.00000000  0.00000000  1
  Nb  Nb2  2  0.00000000  0.00000000  0.50000000  1
  O  O3  8  0.20287750  0.73174950  0.50000000  1
  O  O4  4  0.00000000  0.00000000  0.26392300  1
