# generated using pymatgen
data_Ba3BiIr2O9
_symmetry_space_group_name_H-M   C2/c
_cell_length_a   6.02985400
_cell_length_b   10.36780800
_cell_length_c   14.97971228
_cell_angle_alpha   90.00000000
_cell_angle_beta   92.01996131
_cell_angle_gamma   90.00000000
_symmetry_Int_Tables_number   15
_chemical_formula_structural   Ba3BiIr2O9
_chemical_formula_sum   'Ba12 Bi4 Ir8 O36'
_cell_volume   935.89529366
_cell_formula_units_Z   4
loop_
 _symmetry_equiv_pos_site_id
 _symmetry_equiv_pos_as_xyz
  1  'x, y, z'
  2  '-x, -y, -z'
  3  '-x, y, -z+1/2'
  4  'x, -y, z+1/2'
  5  'x+1/2, y+1/2, z'
  6  '-x+1/2, -y+1/2, -z'
  7  '-x+1/2, y+1/2, -z+1/2'
  8  'x+1/2, -y+1/2, z+1/2'
loop_
 _atom_site_type_symbol
 _atom_site_label
 _atom_site_symmetry_multiplicity
 _atom_site_fract_x
 _atom_site_fract_y
 _atom_site_fract_z
 _atom_site_occupancy
  Ba  Ba0  8  0.00759400  0.33272500  0.59473900  1
  Ba  Ba1  4  0.00000000  0.00704400  0.25000000  1
  Bi  Bi2  4  0.00000000  0.00000000  0.00000000  1
  Ir  Ir3  8  0.01585800  0.33670200  0.16572800  1
  O  O4  8  0.03574400  0.17641200  0.09254200  1
  O  O5  8  0.19128550  0.40965550  0.42729300  1
  O  O6  8  0.22840950  0.08948750  0.89804800  1
  O  O7  8  0.23408950  0.26120950  0.26091300  1
  O  O8  4  0.00000000  0.49526300  0.25000000  1
