# generated using pymatgen
data_BaHfS3
_symmetry_space_group_name_H-M   Pnma
_cell_length_a   7.09531800
_cell_length_b   10.01967700
_cell_length_c   7.00103100
_cell_angle_alpha   90.00000000
_cell_angle_beta   90.00000000
_cell_angle_gamma   90.00000000
_symmetry_Int_Tables_number   62
_chemical_formula_structural   BaHfS3
_chemical_formula_sum   'Ba4 Hf4 S12'
_cell_volume   497.72285868
_cell_formula_units_Z   4
loop_
 _symmetry_equiv_pos_site_id
 _symmetry_equiv_pos_as_xyz
  1  'x, y, z'
  2  '-x, -y, -z'
  3  '-x+1/2, -y, z+1/2'
  4  'x+1/2, y, -z+1/2'
  5  'x+1/2, -y+1/2, -z+1/2'
  6  '-x+1/2, y+1/2, z+1/2'
  7  '-x, y+1/2, -z'
  8  'x, -y+1/2, z'
loop_
 _atom_site_type_symbol
 _atom_site_label
 _atom_site_symmetry_multiplicity
 _atom_site_fract_x
 _atom_site_fract_y
 _atom_site_fract_z
 _atom_site_occupancy
  Ba  Ba0  4  0.04729700  0.25000000  0.01170700  1
  Hf  Hf1  4  0.00000000  0.00000000  0.50000000  1
  S  S2  8  0.21104300  0.52891100  0.78896500  1
  S  S3  4  0.00082600  0.75000000  0.44405000  1
