# generated using pymatgen
data_BaIrO3
_symmetry_space_group_name_H-M   C2/c
_cell_length_a   5.81917200
_cell_length_b   10.02158000
_cell_length_c   14.62414104
_cell_angle_alpha   90.00000000
_cell_angle_beta   91.89087022
_cell_angle_gamma   90.00000000
_symmetry_Int_Tables_number   15
_chemical_formula_structural   BaIrO3
_chemical_formula_sum   'Ba12 Ir12 O36'
_cell_volume   852.37600413
_cell_formula_units_Z   12
loop_
 _symmetry_equiv_pos_site_id
 _symmetry_equiv_pos_as_xyz
  1  'x, y, z'
  2  '-x, -y, -z'
  3  '-x, y, -z+1/2'
  4  'x, -y, z+1/2'
  5  'x+1/2, y+1/2, z'
  6  '-x+1/2, -y+1/2, -z'
  7  '-x+1/2, y+1/2, -z+1/2'
  8  'x+1/2, -y+1/2, z+1/2'
loop_
 _atom_site_type_symbol
 _atom_site_label
 _atom_site_symmetry_multiplicity
 _atom_site_fract_x
 _atom_site_fract_y
 _atom_site_fract_z
 _atom_site_occupancy
  Ba  Ba0  8  0.00988100  0.33333900  0.09554300  1
  Ba  Ba1  4  0.00000000  0.00388900  0.75000000  1
  Ir  Ir2  8  0.01074450  0.33519150  0.65325500  1
  Ir  Ir3  4  0.00000000  0.00000000  0.00000000  1
  O  O4  8  0.05132200  0.15091200  0.59243500  1
  O  O5  8  0.19984100  0.08975500  0.40679400  1
  O  O6  8  0.21697600  0.40355200  0.94710900  1
  O  O7  8  0.22136650  0.26536750  0.75838400  1
  O  O8  4  0.00000000  0.48525600  0.75000000  1
