# generated using pymatgen
data_Ca2FeOsO6
_symmetry_space_group_name_H-M   P2_1/c
_cell_length_a   5.44968900
_cell_length_b   5.58241200
_cell_length_c   9.48637089
_cell_angle_alpha   90.00000000
_cell_angle_beta   125.03585055
_cell_angle_gamma   90.00000000
_symmetry_Int_Tables_number   14
_chemical_formula_structural   Ca2FeOsO6
_chemical_formula_sum   'Ca4 Fe2 Os2 O12'
_cell_volume   236.30223078
_cell_formula_units_Z   2
loop_
 _symmetry_equiv_pos_site_id
 _symmetry_equiv_pos_as_xyz
  1  'x, y, z'
  2  '-x, -y, -z'
  3  '-x, y+1/2, -z+1/2'
  4  'x, -y+1/2, z+1/2'
loop_
 _atom_site_type_symbol
 _atom_site_label
 _atom_site_symmetry_multiplicity
 _atom_site_fract_x
 _atom_site_fract_y
 _atom_site_fract_z
 _atom_site_occupancy
  Ca  Ca0  4  0.23796800  0.54992800  0.74895800  1
  Fe  Fe1  2  0.00000000  0.00000000  0.50000000  1
  Os  Os2  2  0.50000000  0.00000000  0.00000000  1
  O  O3  4  0.16111700  0.70204200  0.45519100  1
  O  O4  4  0.25454400  0.20774700  0.45254300  1
  O  O5  4  0.34052200  0.52606500  0.25255000  1
