# generated using pymatgen
data_Eu5Nb4O15
_symmetry_space_group_name_H-M   P-3m1
_cell_length_a   5.72930800
_cell_length_b   5.72930800
_cell_length_c   11.58337689
_cell_angle_alpha   90.00000000
_cell_angle_beta   90.00000000
_cell_angle_gamma   120.00000000
_symmetry_Int_Tables_number   164
_chemical_formula_structural   Eu5Nb4O15
_chemical_formula_sum   'Eu5 Nb4 O15'
_cell_volume   329.28364397
_cell_formula_units_Z   1
loop_
 _symmetry_equiv_pos_site_id
 _symmetry_equiv_pos_as_xyz
  1  'x, y, z'
  2  '-x, -y, -z'
  3  '-y, x-y, z'
  4  'y, -x+y, -z'
  5  '-x+y, -x, z'
  6  'x-y, x, -z'
  7  'y, x, -z'
  8  '-y, -x, z'
  9  'x-y, -y, -z'
  10  '-x+y, y, z'
  11  '-x, -x+y, -z'
  12  'x, x-y, z'
loop_
 _atom_site_type_symbol
 _atom_site_label
 _atom_site_symmetry_multiplicity
 _atom_site_fract_x
 _atom_site_fract_y
 _atom_site_fract_z
 _atom_site_occupancy
  Eu  Eu0  2  0.33333333  0.66666667  0.43822450  1
  Eu  Eu1  2  0.33333333  0.66666667  0.77069650  1
  Eu  Eu2  1  0.00000000  0.00000000  0.00000000  1
  Nb  Nb3  2  0.00000000  0.00000000  0.32064450  1
  Nb  Nb4  2  0.33333333  0.66666667  0.10491150  1
  O  O5  6  0.16471600  0.32943200  0.19835650  1
  O  O6  6  0.17070200  0.34140400  0.60389250  1
  O  O7  3  0.00000000  0.50000000  0.00000000  1
