# generated using pymatgen
data_GdMnO3
_symmetry_space_group_name_H-M   Pnma
_cell_length_a   5.85596500
_cell_length_b   7.57169400
_cell_length_c   5.36147800
_cell_angle_alpha   90.00000000
_cell_angle_beta   90.00000000
_cell_angle_gamma   90.00000000
_symmetry_Int_Tables_number   62
_chemical_formula_structural   GdMnO3
_chemical_formula_sum   'Gd4 Mn4 O12'
_cell_volume   237.72565619
_cell_formula_units_Z   4
loop_
 _symmetry_equiv_pos_site_id
 _symmetry_equiv_pos_as_xyz
  1  'x, y, z'
  2  '-x, -y, -z'
  3  '-x+1/2, -y, z+1/2'
  4  'x+1/2, y, -z+1/2'
  5  'x+1/2, -y+1/2, -z+1/2'
  6  '-x+1/2, y+1/2, z+1/2'
  7  '-x, y+1/2, -z'
  8  'x, -y+1/2, z'
loop_
 _atom_site_type_symbol
 _atom_site_label
 _atom_site_symmetry_multiplicity
 _atom_site_fract_x
 _atom_site_fract_y
 _atom_site_fract_z
 _atom_site_occupancy
  Gd  Gd0  4  0.07801800  0.25000000  0.98294400  1
  Mn  Mn1  4  0.00000000  0.00000000  0.50000000  1
  O  O2  8  0.17745200  0.55341700  0.20720800  1
  O  O3  4  0.03325000  0.75000000  0.60733000  1
