# generated using pymatgen
data_La2MnNiO6
_symmetry_space_group_name_H-M   P2_1/c
_cell_length_a   5.54475223
_cell_length_b   5.54253000
_cell_length_c   9.57609486
_cell_angle_alpha   90.00000000
_cell_angle_beta   125.23836180
_cell_angle_gamma   90.00000000
_symmetry_Int_Tables_number   14
_chemical_formula_structural   La2MnNiO6
_chemical_formula_sum   'La4 Mn2 Ni2 O12'
_cell_volume   240.36567157
_cell_formula_units_Z   2
loop_
 _symmetry_equiv_pos_site_id
 _symmetry_equiv_pos_as_xyz
  1  'x, y, z'
  2  '-x, -y, -z'
  3  '-x, y+1/2, -z+1/2'
  4  'x, -y+1/2, z+1/2'
loop_
 _atom_site_type_symbol
 _atom_site_label
 _atom_site_symmetry_multiplicity
 _atom_site_fract_x
 _atom_site_fract_y
 _atom_site_fract_z
 _atom_site_occupancy
  La  La0  4  0.25610400  0.53150600  0.75003600  1
  Mn  Mn1  2  0.50000000  0.00000000  0.00000000  1
  Ni  Ni2  2  0.00000000  0.00000000  0.50000000  1
  O  O3  4  0.18471200  0.51399100  0.25810700  1
  O  O4  4  0.26505900  0.20965100  0.03916600  1
  O  O5  4  0.33152000  0.72360200  0.03919200  1
