# generated using pymatgen
data_LiPr2OsO6
_symmetry_space_group_name_H-M   P2_1/c
_cell_length_a   5.51420100
_cell_length_b   5.85547600
_cell_length_c   9.55567040
_cell_angle_alpha   90.00000000
_cell_angle_beta   124.74877262
_cell_angle_gamma   90.00000000
_symmetry_Int_Tables_number   14
_chemical_formula_structural   LiPr2OsO6
_chemical_formula_sum   'Li2 Pr4 Os2 O12'
_cell_volume   253.51149374
_cell_formula_units_Z   2
loop_
 _symmetry_equiv_pos_site_id
 _symmetry_equiv_pos_as_xyz
  1  'x, y, z'
  2  '-x, -y, -z'
  3  '-x, y+1/2, -z+1/2'
  4  'x, -y+1/2, z+1/2'
loop_
 _atom_site_type_symbol
 _atom_site_label
 _atom_site_symmetry_multiplicity
 _atom_site_fract_x
 _atom_site_fract_y
 _atom_site_fract_z
 _atom_site_occupancy
  Li  Li0  2  0.00000000  0.00000000  0.00000000  1
  Pr  Pr1  4  0.23239900  0.56844700  0.24870400  1
  Os  Os2  2  0.50000000  0.00000000  0.50000000  1
  O  O3  4  0.15911600  0.68682000  0.95269700  1
  O  O4  4  0.26522200  0.21349500  0.94725700  1
  O  O5  4  0.35346200  0.53065400  0.75673000  1
