# generated using pymatgen
data_Nd2MnNiO6
_symmetry_space_group_name_H-M   P2_1/c
_cell_length_a   5.44420700
_cell_length_b   5.59806800
_cell_length_c   9.47412793
_cell_angle_alpha   90.00000000
_cell_angle_beta   125.11126355
_cell_angle_gamma   90.00000000
_symmetry_Int_Tables_number   14
_chemical_formula_structural   Nd2MnNiO6
_chemical_formula_sum   'Nd4 Mn2 Ni2 O12'
_cell_volume   236.20267546
_cell_formula_units_Z   2
loop_
 _symmetry_equiv_pos_site_id
 _symmetry_equiv_pos_as_xyz
  1  'x, y, z'
  2  '-x, -y, -z'
  3  '-x, y+1/2, -z+1/2'
  4  'x, -y+1/2, z+1/2'
loop_
 _atom_site_type_symbol
 _atom_site_label
 _atom_site_symmetry_multiplicity
 _atom_site_fract_x
 _atom_site_fract_y
 _atom_site_fract_z
 _atom_site_occupancy
  Nd  Nd0  4  0.26195100  0.05380100  0.24939700  1
  Mn  Mn1  2  0.50000000  0.00000000  0.00000000  1
  Ni  Ni2  2  0.00000000  0.00000000  0.50000000  1
  O  O3  4  0.17258000  0.02176300  0.75773000  1
  O  O4  4  0.25939400  0.69984100  0.54416900  1
  O  O5  4  0.34825800  0.21600300  0.54651000  1
