# generated using pymatgen
data_Sr2CrSbO6
_symmetry_space_group_name_H-M   C2/m
_cell_length_a   9.78559915
_cell_length_b   5.64154400
_cell_length_c   5.69395817
_cell_angle_alpha   90.00000000
_cell_angle_beta   125.60519632
_cell_angle_gamma   90.00000000
_symmetry_Int_Tables_number   12
_chemical_formula_structural   Sr2CrSbO6
_chemical_formula_sum   'Sr4 Cr2 Sb2 O12'
_cell_volume   255.57351154
_cell_formula_units_Z   2
loop_
 _symmetry_equiv_pos_site_id
 _symmetry_equiv_pos_as_xyz
  1  'x, y, z'
  2  '-x, -y, -z'
  3  '-x, y, -z'
  4  'x, -y, z'
  5  'x+1/2, y+1/2, z'
  6  '-x+1/2, -y+1/2, -z'
  7  '-x+1/2, y+1/2, -z'
  8  'x+1/2, -y+1/2, z'
loop_
 _atom_site_type_symbol
 _atom_site_label
 _atom_site_symmetry_multiplicity
 _atom_site_fract_x
 _atom_site_fract_y
 _atom_site_fract_z
 _atom_site_occupancy
  Sr  Sr0  4  0.24963000  0.50000000  0.74557200  1
  Cr  Cr1  2  0.00000000  0.00000000  0.50000000  1
  Sb  Sb2  2  0.00000000  0.50000000  0.00000000  1
  O  O3  8  0.03166050  0.25151150  0.27946500  1
  O  O4  4  0.24819050  0.50000000  0.18947100  1
