# generated using pymatgen
data_Sr2TbIrO6
_symmetry_space_group_name_H-M   P2_1/c
_cell_length_a   5.83309600
_cell_length_b   5.89088600
_cell_length_c   10.09276804
_cell_angle_alpha   90.00000000
_cell_angle_beta   124.86804428
_cell_angle_gamma   90.00000000
_symmetry_Int_Tables_number   14
_chemical_formula_structural   Sr2TbIrO6
_chemical_formula_sum   'Sr4 Tb2 Ir2 O12'
_cell_volume   284.54646315
_cell_formula_units_Z   2
loop_
 _symmetry_equiv_pos_site_id
 _symmetry_equiv_pos_as_xyz
  1  'x, y, z'
  2  '-x, -y, -z'
  3  '-x, y+1/2, -z+1/2'
  4  'x, -y+1/2, z+1/2'
loop_
 _atom_site_type_symbol
 _atom_site_label
 _atom_site_symmetry_multiplicity
 _atom_site_fract_x
 _atom_site_fract_y
 _atom_site_fract_z
 _atom_site_occupancy
  Sr  Sr0  4  0.24058100  0.53644100  0.24916300  1
  Tb  Tb1  2  0.50000000  0.00000000  0.50000000  1
  Ir  Ir2  2  0.00000000  0.00000000  0.00000000  1
  O  O3  4  0.15615700  0.72855400  0.95972600  1
  O  O4  4  0.23224200  0.19972700  0.96176800  1
  O  O5  4  0.30790800  0.51854600  0.73420600  1
