# generated using pymatgen
data_TiCdO3
_symmetry_space_group_name_H-M   Pna2_1
_cell_length_a   5.49431800
_cell_length_b   5.35976500
_cell_length_c   7.81224500
_cell_angle_alpha   90.00000000
_cell_angle_beta   90.00000000
_cell_angle_gamma   90.00000000
_symmetry_Int_Tables_number   33
_chemical_formula_structural   TiCdO3
_chemical_formula_sum   'Ti4 Cd4 O12'
_cell_volume   230.05696972
_cell_formula_units_Z   4
loop_
 _symmetry_equiv_pos_site_id
 _symmetry_equiv_pos_as_xyz
  1  'x, y, z'
  2  '-x, -y, z+1/2'
  3  '-x+1/2, y+1/2, z+1/2'
  4  'x+1/2, -y+1/2, z'
loop_
 _atom_site_type_symbol
 _atom_site_label
 _atom_site_symmetry_multiplicity
 _atom_site_fract_x
 _atom_site_fract_y
 _atom_site_fract_z
 _atom_site_occupancy
  Ti  Ti0  4  0.01005600  0.49865500  0.48971000  1
  Cd  Cd1  4  0.03720900  0.01081600  0.74190600  1
  O  O2  4  0.02972000  0.40672700  0.25850500  1
  O  O3  4  0.18936700  0.80190000  0.45889300  1
  O  O4  4  0.22142100  0.79306000  0.05588600  1
