# generated using pymatgen
data_UVSe3
_symmetry_space_group_name_H-M   Pnma
_cell_length_a   7.34728200
_cell_length_b   9.48257800
_cell_length_c   6.37230400
_cell_angle_alpha   90.00000000
_cell_angle_beta   90.00000000
_cell_angle_gamma   90.00000000
_symmetry_Int_Tables_number   62
_chemical_formula_structural   UVSe3
_chemical_formula_sum   'U4 V4 Se12'
_cell_volume   443.96590493
_cell_formula_units_Z   4
loop_
 _symmetry_equiv_pos_site_id
 _symmetry_equiv_pos_as_xyz
  1  'x, y, z'
  2  '-x, -y, -z'
  3  '-x+1/2, -y, z+1/2'
  4  'x+1/2, y, -z+1/2'
  5  'x+1/2, -y+1/2, -z+1/2'
  6  '-x+1/2, y+1/2, z+1/2'
  7  '-x, y+1/2, -z'
  8  'x, -y+1/2, z'
loop_
 _atom_site_type_symbol
 _atom_site_label
 _atom_site_symmetry_multiplicity
 _atom_site_fract_x
 _atom_site_fract_y
 _atom_site_fract_z
 _atom_site_occupancy
  U  U0  4  0.12103300  0.75000000  0.56545400  1
  V  V1  4  0.00000000  0.00000000  0.00000000  1
  Se  Se2  8  0.18055100  0.06096000  0.34253500  1
  Se  Se3  4  0.04062900  0.25000000  0.85032600  1
