# generated using pymatgen
data_YbCrO3
_symmetry_space_group_name_H-M   Pnma
_cell_length_a   5.45625700
_cell_length_b   7.45927200
_cell_length_c   5.24246200
_cell_angle_alpha   90.00000000
_cell_angle_beta   90.00000000
_cell_angle_gamma   90.00000000
_symmetry_Int_Tables_number   62
_chemical_formula_structural   YbCrO3
_chemical_formula_sum   'Yb4 Cr4 O12'
_cell_volume   213.36665721
_cell_formula_units_Z   4
loop_
 _symmetry_equiv_pos_site_id
 _symmetry_equiv_pos_as_xyz
  1  'x, y, z'
  2  '-x, -y, -z'
  3  '-x+1/2, -y, z+1/2'
  4  'x+1/2, y, -z+1/2'
  5  'x+1/2, -y+1/2, -z+1/2'
  6  '-x+1/2, y+1/2, z+1/2'
  7  '-x, y+1/2, -z'
  8  'x, -y+1/2, z'
loop_
 _atom_site_type_symbol
 _atom_site_label
 _atom_site_symmetry_multiplicity
 _atom_site_fract_x
 _atom_site_fract_y
 _atom_site_fract_z
 _atom_site_occupancy
  Yb  Yb0  4  0.05649900  0.75000000  0.51257800  1
  Cr  Cr1  4  0.00000000  0.00000000  0.00000000  1
  O  O2  8  0.20001700  0.04318700  0.29309100  1
  O  O3  4  0.02383500  0.25000000  0.91636800  1
