# generated using pymatgen
data_Ba2Y(CuO2)4
_symmetry_space_group_name_H-M   Cmmm
_cell_length_a   3.89960400
_cell_length_b   27.50377800
_cell_length_c   3.88992200
_cell_angle_alpha   90.00000000
_cell_angle_beta   90.00000000
_cell_angle_gamma   90.00000000
_symmetry_Int_Tables_number   65
_chemical_formula_structural   Ba2Y(CuO2)4
_chemical_formula_sum   'Ba4 Y2 Cu8 O16'
_cell_volume   417.20908232
_cell_formula_units_Z   2
loop_
 _symmetry_equiv_pos_site_id
 _symmetry_equiv_pos_as_xyz
  1  'x, y, z'
  2  '-x, -y, -z'
  3  '-x, -y, z'
  4  'x, y, -z'
  5  'x, -y, -z'
  6  '-x, y, z'
  7  '-x, y, -z'
  8  'x, -y, z'
  9  'x+1/2, y+1/2, z'
  10  '-x+1/2, -y+1/2, -z'
  11  '-x+1/2, -y+1/2, z'
  12  'x+1/2, y+1/2, -z'
  13  'x+1/2, -y+1/2, -z'
  14  '-x+1/2, y+1/2, z'
  15  '-x+1/2, y+1/2, -z'
  16  'x+1/2, -y+1/2, z'
loop_
 _atom_site_type_symbol
 _atom_site_label
 _atom_site_symmetry_multiplicity
 _atom_site_fract_x
 _atom_site_fract_y
 _atom_site_fract_z
 _atom_site_occupancy
  Ba  Ba0  4  0.00000000  0.36427000  0.50000000  1
  Y  Y1  2  0.00000000  0.50000000  0.50000000  1
  Cu  Cu2  4  0.00000000  0.06155000  0.00000000  1
  Cu  Cu3  4  0.00000000  0.21265200  0.00000000  1
  O  O4  4  0.00000000  0.05227800  0.50000000  1
  O  O5  4  0.00000000  0.14540900  0.00000000  1
  O  O6  4  0.00000000  0.28151900  0.00000000  1
  O  O7  4  0.00000000  0.44790600  0.00000000  1
