# generated using pymatgen
data_Sr2DyMoO6
_symmetry_space_group_name_H-M   P2_1/c
_cell_length_a   5.84015400
_cell_length_b   5.88528800
_cell_length_c   10.15180760
_cell_angle_alpha   90.00000000
_cell_angle_beta   124.58057451
_cell_angle_gamma   90.00000000
_symmetry_Int_Tables_number   14
_chemical_formula_structural   Sr2DyMoO6
_chemical_formula_sum   'Sr4 Dy2 Mo2 O12'
_cell_volume   287.28220622
_cell_formula_units_Z   2
loop_
 _symmetry_equiv_pos_site_id
 _symmetry_equiv_pos_as_xyz
  1  'x, y, z'
  2  '-x, -y, -z'
  3  '-x, y+1/2, -z+1/2'
  4  'x, -y+1/2, z+1/2'
loop_
 _atom_site_type_symbol
 _atom_site_label
 _atom_site_symmetry_multiplicity
 _atom_site_fract_x
 _atom_site_fract_y
 _atom_site_fract_z
 _atom_site_occupancy
  Sr  Sr0  4  0.24467700  0.03464100  0.24800400  1
  Dy  Dy1  2  0.50000000  0.00000000  0.00000000  1
  Mo  Mo2  2  0.00000000  0.00000000  0.50000000  1
  O  O3  4  0.15384000  0.21840300  0.95964100  1
  O  O4  4  0.23664300  0.68958800  0.96460600  1
  O  O5  4  0.31193900  0.01695500  0.73694200  1
