# generated using pymatgen
data_SrLaCuO4
_symmetry_space_group_name_H-M   I4mm
_cell_length_a   3.86982600
_cell_length_b   3.86982600
_cell_length_c   12.56693800
_cell_angle_alpha   90.00000000
_cell_angle_beta   90.00000000
_cell_angle_gamma   90.00000000
_symmetry_Int_Tables_number   107
_chemical_formula_structural   SrLaCuO4
_chemical_formula_sum   'Sr2 La2 Cu2 O8'
_cell_volume   188.19684946
_cell_formula_units_Z   2
loop_
 _symmetry_equiv_pos_site_id
 _symmetry_equiv_pos_as_xyz
  1  'x, y, z'
  2  '-y, x, z'
  3  '-x, -y, z'
  4  'y, -x, z'
  5  '-x, y, z'
  6  'y, x, z'
  7  'x, -y, z'
  8  '-y, -x, z'
  9  'x+1/2, y+1/2, z+1/2'
  10  '-y+1/2, x+1/2, z+1/2'
  11  '-x+1/2, -y+1/2, z+1/2'
  12  'y+1/2, -x+1/2, z+1/2'
  13  '-x+1/2, y+1/2, z+1/2'
  14  'y+1/2, x+1/2, z+1/2'
  15  'x+1/2, -y+1/2, z+1/2'
  16  '-y+1/2, -x+1/2, z+1/2'
loop_
 _atom_site_type_symbol
 _atom_site_label
 _atom_site_symmetry_multiplicity
 _atom_site_fract_x
 _atom_site_fract_y
 _atom_site_fract_z
 _atom_site_occupancy
  Sr  Sr0  2  0.00000000  0.00000000  0.63961800  1
  La  La1  2  0.00000000  0.00000000  0.36023300  1
  Cu  Cu2  2  0.00000000  0.00000000  0.00191500  1
  O  O3  4  0.00000000  0.50000000  0.49444300  1
  O  O4  2  0.00000000  0.00000000  0.17385100  1
  O  O5  2  0.00000000  0.00000000  0.83549700  1
